
 OpenBabel11121800543D

 66 72  0  0  1  0  0  0  0  0999 V2000
   -0.2523   -1.2323    0.0675 C   0  0  0  0  0  0  0  0  0  0  0  0
   -1.4787   -0.0768   -0.2094 S   0  0  0  0  0  0  0  0  0  0  0  0
   -0.3204    1.1899   -0.0306 C   0  0  0  0  0  0  0  0  0  0  0  0
    0.8883    0.6993    0.1961 N   0  0  0  0  0  0  0  0  0  0  0  0
    0.9359   -0.6947    0.2264 N   0  0  0  0  0  0  0  0  0  0  0  0
   -0.6425    2.5230   -0.1810 N   0  0  0  0  0  0  0  0  0  0  0  0
    0.3934    3.5070    0.1514 C   0  0  0  0  0  0  0  0  0  0  0  0
    0.1493    4.8069   -0.6258 C   0  0  0  0  0  0  0  0  0  0  0  0
   -1.2696    5.3593   -0.3981 C   0  0  2  0  0  0  0  0  0  0  0  0
   -1.3723    5.6232    0.6638 H   0  0  0  0  0  0  0  0  0  0  0  0
   -2.2923    4.2602   -0.7194 C   0  0  0  0  0  0  0  0  0  0  0  0
   -2.0136    2.9839    0.0744 C   0  0  0  0  0  0  0  0  0  0  0  0
   -1.5617    6.6107   -1.2487 C   0  0  0  0  0  0  0  0  0  0  0  0
   -0.6708    7.7538   -0.9077 C   0  0  0  0  0  0  0  0  0  0  0  0
   -0.5620    8.3350    0.2765 N   0  0  0  0  0  0  0  0  0  0  0  0
    0.3789    9.3425    0.1912 N   0  0  0  0  0  0  0  0  0  0  0  0
    0.8084    9.3470   -1.0503 C   0  0  0  0  0  0  0  0  0  0  0  0
    0.1826    8.3753   -1.7862 N   0  0  0  0  0  0  0  0  0  0  0  0
    0.4982    8.2259   -3.1237 C   0  0  0  0  0  0  0  0  0  0  0  0
    1.4235    9.0486   -3.6534 C   0  0  0  0  0  0  0  0  0  0  0  0
    2.0863   10.0380   -2.9417 N   0  0  0  0  0  0  0  0  0  0  0  0
    1.7839   10.1775   -1.6769 C   0  0  0  0  0  0  0  0  0  0  0  0
   -0.5483   -2.5888   -0.0204 N   0  0  0  0  0  0  0  0  0  0  0  0
   -1.8451   -3.0744    0.0677 C   0  0  0  0  0  0  0  0  0  0  0  0
   -2.8655   -2.5180    0.4443 O   0  0  0  0  0  0  0  0  0  0  0  0
   -1.8479   -4.5042   -0.3818 C   0  0  0  0  0  0  0  0  0  0  0  0
   -0.3834   -4.8700   -0.6577 C   0  0  1  0  0  0  0  0  0  0  0  0
   -0.0554   -6.2375   -0.0278 C   0  0  0  0  0  0  0  0  0  0  0  0
    0.6446   -7.0764   -1.0878 C   0  0  0  0  0  0  0  0  0  0  0  0
    0.9152   -6.1612   -2.2128 N   0  0  0  0  0  0  0  0  0  0  0  0
   -0.0842   -5.0696   -2.1495 C   0  0  0  0  0  0  0  0  0  0  0  0
    2.5428   -5.7279   -2.4288 S   0  0  0  0  0  0  0  0  0  0  0  0
    2.6341   -4.7965   -3.5308 O   0  0  0  0  0  0  0  0  0  0  0  0
    3.0761   -5.4086   -1.1201 O   0  0  0  0  0  0  0  0  0  0  0  0
    3.4102   -7.1955   -2.9456 C   0  0  0  0  0  0  0  0  0  0  0  0
    4.4386   -7.9241   -2.3774 C   0  0  0  0  0  0  0  0  0  0  0  0
    4.7857   -9.0690   -3.1544 C   0  0  0  0  0  0  0  0  0  0  0  0
    4.0114   -9.1742   -4.2892 C   0  0  0  0  0  0  0  0  0  0  0  0
    2.8716   -7.9052   -4.4078 S   0  0  0  0  0  0  0  0  0  0  0  0
    0.4107   -3.6698   -0.0947 C   0  0  0  0  0  0  0  0  0  0  0  0
    1.3948    3.1448   -0.1082 H   0  0  0  0  0  0  0  0  0  0  0  0
    0.3822    3.7074    1.2305 H   0  0  0  0  0  0  0  0  0  0  0  0
    0.2990    4.6197   -1.6970 H   0  0  0  0  0  0  0  0  0  0  0  0
    0.8991    5.5454   -0.3208 H   0  0  0  0  0  0  0  0  0  0  0  0
   -2.2620    4.0295   -1.7930 H   0  0  0  0  0  0  0  0  0  0  0  0
   -3.3073    4.6115   -0.4980 H   0  0  0  0  0  0  0  0  0  0  0  0
   -2.7720    2.2550   -0.2292 H   0  0  0  0  0  0  0  0  0  0  0  0
   -2.1502    3.1672    1.1476 H   0  0  0  0  0  0  0  0  0  0  0  0
   -1.4985    6.3621   -2.3137 H   0  0  0  0  0  0  0  0  0  0  0  0
   -2.5965    6.9334   -1.0721 H   0  0  0  0  0  0  0  0  0  0  0  0
   -0.0063    7.4609   -3.6963 H   0  0  0  0  0  0  0  0  0  0  0  0
    1.6994    8.9633   -4.7031 H   0  0  0  0  0  0  0  0  0  0  0  0
    2.2940   10.9512   -1.0793 H   0  0  0  0  0  0  0  0  0  0  0  0
   -2.4748   -4.5743   -1.2763 H   0  0  0  0  0  0  0  0  0  0  0  0
   -2.2960   -5.1006    0.4186 H   0  0  0  0  0  0  0  0  0  0  0  0
   -0.9577   -6.7804    0.2804 H   0  0  0  0  0  0  0  0  0  0  0  0
    0.5673   -6.1410    0.8665 H   0  0  0  0  0  0  0  0  0  0  0  0
   -0.0114   -7.8762   -1.4511 H   0  0  0  0  0  0  0  0  0  0  0  0
    1.5417   -7.5579   -0.6890 H   0  0  0  0  0  0  0  0  0  0  0  0
   -0.9684   -5.4254   -2.6937 H   0  0  0  0  0  0  0  0  0  0  0  0
    0.2488   -4.1600   -2.6574 H   0  0  0  0  0  0  0  0  0  0  0  0
    4.9117   -7.6449   -1.4431 H   0  0  0  0  0  0  0  0  0  0  0  0
    5.5655   -9.7773   -2.8960 H   0  0  0  0  0  0  0  0  0  0  0  0
    4.0581   -9.9365   -5.0548 H   0  0  0  0  0  0  0  0  0  0  0  0
    1.2542   -3.3749   -0.7276 H   0  0  0  0  0  0  0  0  0  0  0  0
    0.7794   -3.8647    0.9181 H   0  0  0  0  0  0  0  0  0  0  0  0
  1  2  1  0  0  0  0
  1  5  2  0  0  0  0
  1 23  1  0  0  0  0
  2  3  1  0  0  0  0
  3  4  2  0  0  0  0
  3  6  1  0  0  0  0
  4  5  1  0  0  0  0
  6  7  1  0  0  0  0
  6 12  1  0  0  0  0
  7  8  1  0  0  0  0
  7 41  1  0  0  0  0
  7 42  1  0  0  0  0
  8  9  1  0  0  0  0
  8 43  1  0  0  0  0
  8 44  1  0  0  0  0
  9 11  1  0  0  0  0
  9 13  1  0  0  0  0
  9 10  1  1  0  0  0
 11 12  1  0  0  0  0
 11 45  1  0  0  0  0
 11 46  1  0  0  0  0
 12 47  1  0  0  0  0
 12 48  1  0  0  0  0
 13 14  1  0  0  0  0
 13 49  1  0  0  0  0
 13 50  1  0  0  0  0
 14 15  2  0  0  0  0
 14 18  1  0  0  0  0
 15 16  1  0  0  0  0
 16 17  2  0  0  0  0
 17 18  1  0  0  0  0
 17 22  1  0  0  0  0
 18 19  1  0  0  0  0
 19 20  2  0  0  0  0
 19 51  1  0  0  0  0
 20 21  1  0  0  0  0
 20 52  1  0  0  0  0
 21 22  2  0  0  0  0
 22 53  1  0  0  0  0
 23 24  1  0  0  0  0
 23 40  1  0  0  0  0
 24 25  2  0  0  0  0
 24 26  1  0  0  0  0
 26 54  1  0  0  0  0
 26 55  1  0  0  0  0
 27 26  1  1  0  0  0
 27 28  1  0  0  0  0
 27 31  1  0  0  0  0
 27 40  1  0  0  0  0
 28 29  1  0  0  0  0
 28 56  1  0  0  0  0
 28 57  1  0  0  0  0
 29 30  1  0  0  0  0
 29 58  1  0  0  0  0
 29 59  1  0  0  0  0
 30 31  1  0  0  0  0
 30 32  1  0  0  0  0
 31 60  1  0  0  0  0
 31 61  1  0  0  0  0
 32 33  2  0  0  0  0
 32 34  2  0  0  0  0
 32 35  1  0  0  0  0
 35 36  2  0  0  0  0
 35 39  1  0  0  0  0
 36 37  1  0  0  0  0
 36 62  1  0  0  0  0
 37 38  2  0  0  0  0
 37 63  1  0  0  0  0
 38 39  1  0  0  0  0
 38 64  1  0  0  0  0
 40 65  1  0  0  0  0
 40 66  1  0  0  0  0
M  END
$$$$

 OpenBabel11121800543D

 68 74  0  0  0  0  0  0  0  0999 V2000
   -0.9432   -1.3453    0.1114 C   0  0  0  0  0  0  0  0  0  0  0  0
   -0.8926    0.0237    1.1863 S   0  0  0  0  0  0  0  0  0  0  0  0
   -1.1201    1.0808   -0.1833 C   0  0  0  0  0  0  0  0  0  0  0  0
   -1.2483    0.3853   -1.2907 N   0  0  0  0  0  0  0  0  0  0  0  0
   -1.1465   -0.9778   -1.1440 N   0  0  0  0  0  0  0  0  0  0  0  0
   -1.1468    2.4571   -0.1581 N   0  0  0  0  0  0  0  0  0  0  0  0
   -0.8165    3.2331    1.0422 C   0  0  0  0  0  0  0  0  0  0  0  0
   -0.4404    4.6858    0.6921 C   0  0  0  0  0  0  0  0  0  0  0  0
   -1.4761    5.3831   -0.2055 C   0  0  0  0  0  0  0  0  0  0  0  0
   -1.6150    4.5215   -1.4669 C   0  0  0  0  0  0  0  0  0  0  0  0
   -2.0507    3.0916   -1.1438 C   0  0  0  0  0  0  0  0  0  0  0  0
   -2.8033    5.6329    0.5432 C   0  0  0  0  0  0  0  0  0  0  0  0
   -3.8278    6.2999   -0.3054 C   0  0  0  0  0  0  0  0  0  0  0  0
   -4.7162    5.6892   -1.0764 N   0  0  0  0  0  0  0  0  0  0  0  0
   -5.4631    6.6480   -1.7312 N   0  0  0  0  0  0  0  0  0  0  0  0
   -5.0136    7.8096   -1.3306 C   0  0  0  0  0  0  0  0  0  0  0  0
   -3.9992    7.6575   -0.4269 N   0  0  0  0  0  0  0  0  0  0  0  0
   -3.3975    8.7715    0.1291 C   0  0  0  0  0  0  0  0  0  0  0  0
   -3.8374    9.9848   -0.2557 C   0  0  0  0  0  0  0  0  0  0  0  0
   -4.8531   10.1872   -1.1798 N   0  0  0  0  0  0  0  0  0  0  0  0
   -5.4224    9.1288   -1.6984 C   0  0  0  0  0  0  0  0  0  0  0  0
   -0.8358   -2.7686    0.5137 N   0  0  0  0  0  0  0  0  0  0  0  0
   -0.9718   -2.9099    1.8751 O   0  0  0  0  0  0  0  0  0  0  0  0
   -1.8849   -3.4330   -0.0583 O   0  0  0  0  0  0  0  0  0  0  0  0
    0.4533   -3.4661    0.0846 N   0  0  0  0  0  0  0  0  0  0  0  0
    0.7765   -4.7953    0.3818 C   0  0  0  0  0  0  0  0  0  0  0  0
    1.9520   -5.1224   -0.1247 N   0  0  0  0  0  0  0  0  0  0  0  0
    2.4422   -3.9975   -0.7057 C   0  0  0  0  0  0  0  0  0  0  0  0
    3.6828   -3.8512   -1.3446 C   0  0  0  0  0  0  0  0  0  0  0  0
    4.0329   -2.6077   -1.8572 C   0  0  0  0  0  0  0  0  0  0  0  0
    3.1601   -1.5341   -1.7306 C   0  0  0  0  0  0  0  0  0  0  0  0
    1.9162   -1.6645   -1.0922 C   0  0  0  0  0  0  0  0  0  0  0  0
    1.5590   -2.9220   -0.5802 C   0  0  0  0  0  0  0  0  0  0  0  0
   -0.0060   -5.7865    1.1936 C   0  0  0  0  0  0  0  0  0  0  0  0
   -1.2648   -6.2114    0.6166 N   0  0  0  0  0  0  0  0  0  0  0  0
   -1.2796   -6.6124   -0.7874 C   0  0  0  0  0  0  0  0  0  0  0  0
   -1.9790   -7.9329   -1.1338 C   0  0  0  0  0  0  0  0  0  0  0  0
   -3.1539   -8.1413   -0.3516 O   0  0  0  0  0  0  0  0  0  0  0  0
   -2.7863   -8.2288    1.0232 C   0  0  0  0  0  0  0  0  0  0  0  0
   -2.1391   -6.9359    1.5379 C   0  0  0  0  0  0  0  0  0  0  0  0
    0.0547    2.7966    1.5456 H   0  0  0  0  0  0  0  0  0  0  0  0
   -1.6478    3.2237    1.7561 H   0  0  0  0  0  0  0  0  0  0  0  0
    0.5227    4.6803    0.1616 H   0  0  0  0  0  0  0  0  0  0  0  0
   -0.2802    5.2674    1.6076 H   0  0  0  0  0  0  0  0  0  0  0  0
   -1.0705    6.3592   -0.5072 H   0  0  0  0  0  0  0  0  0  0  0  0
   -0.6426    4.4878   -1.9778 H   0  0  0  0  0  0  0  0  0  0  0  0
   -2.3098    4.9761   -2.1815 H   0  0  0  0  0  0  0  0  0  0  0  0
   -2.0562    2.5396   -2.0894 H   0  0  0  0  0  0  0  0  0  0  0  0
   -3.0805    3.0846   -0.7653 H   0  0  0  0  0  0  0  0  0  0  0  0
   -2.6089    6.2402    1.4361 H   0  0  0  0  0  0  0  0  0  0  0  0
   -3.2290    4.6930    0.9125 H   0  0  0  0  0  0  0  0  0  0  0  0
   -2.6048    8.6291    0.8500 H   0  0  0  0  0  0  0  0  0  0  0  0
   -3.3951   10.8886    0.1585 H   0  0  0  0  0  0  0  0  0  0  0  0
   -6.2322    9.2536   -2.4357 H   0  0  0  0  0  0  0  0  0  0  0  0
    4.3520   -4.7011   -1.4316 H   0  0  0  0  0  0  0  0  0  0  0  0
    4.9865   -2.4785   -2.3627 H   0  0  0  0  0  0  0  0  0  0  0  0
    3.4425   -0.5624   -2.1447 H   0  0  0  0  0  0  0  0  0  0  0  0
    1.2907   -0.7837   -1.0398 H   0  0  0  0  0  0  0  0  0  0  0  0
   -0.1356   -5.3886    2.2064 H   0  0  0  0  0  0  0  0  0  0  0  0
    0.6229   -6.6828    1.3087 H   0  0  0  0  0  0  0  0  0  0  0  0
   -0.2707   -6.6578   -1.2159 H   0  0  0  0  0  0  0  0  0  0  0  0
   -1.8010   -5.8165   -1.3332 H   0  0  0  0  0  0  0  0  0  0  0  0
   -1.2990   -8.7820   -0.9957 H   0  0  0  0  0  0  0  0  0  0  0  0
   -2.2777   -7.9227   -2.1872 H   0  0  0  0  0  0  0  0  0  0  0  0
   -2.1116   -9.0828    1.1586 H   0  0  0  0  0  0  0  0  0  0  0  0
   -3.6937   -8.4379    1.5996 H   0  0  0  0  0  0  0  0  0  0  0  0
   -1.6172   -7.1851    2.4720 H   0  0  0  0  0  0  0  0  0  0  0  0
   -2.9381   -6.2426    1.8212 H   0  0  0  0  0  0  0  0  0  0  0  0
  1  2  1  0  0  0  0
  1  5  2  0  0  0  0
  1 22  1  0  0  0  0
  2  3  1  0  0  0  0
  3  4  2  0  0  0  0
  3  6  1  0  0  0  0
  4  5  1  0  0  0  0
  6  7  1  0  0  0  0
  6 11  1  0  0  0  0
  7  8  1  0  0  0  0
  7 41  1  0  0  0  0
  7 42  1  0  0  0  0
  8  9  1  0  0  0  0
  8 43  1  0  0  0  0
  8 44  1  0  0  0  0
  9 10  1  0  0  0  0
  9 12  1  0  0  0  0
  9 45  1  0  0  0  0
 10 11  1  0  0  0  0
 10 46  1  0  0  0  0
 10 47  1  0  0  0  0
 11 48  1  0  0  0  0
 11 49  1  0  0  0  0
 12 13  1  0  0  0  0
 12 50  1  0  0  0  0
 12 51  1  0  0  0  0
 13 14  2  0  0  0  0
 13 17  1  0  0  0  0
 14 15  1  0  0  0  0
 15 16  2  0  0  0  0
 16 17  1  0  0  0  0
 16 21  1  0  0  0  0
 17 18  1  0  0  0  0
 18 19  2  0  0  0  0
 18 52  1  0  0  0  0
 19 20  1  0  0  0  0
 19 53  1  0  0  0  0
 20 21  2  0  0  0  0
 21 54  1  0  0  0  0
 22 23  2  0  0  0  0
 22 24  2  0  0  0  0
 22 25  1  0  0  0  0
 25 26  1  0  0  0  0
 25 33  1  0  0  0  0
 26 27  2  0  0  0  0
 26 34  1  0  0  0  0
 27 28  1  0  0  0  0
 28 29  2  0  0  0  0
 28 33  1  0  0  0  0
 29 30  1  0  0  0  0
 29 55  1  0  0  0  0
 30 31  2  0  0  0  0
 30 56  1  0  0  0  0
 31 32  1  0  0  0  0
 31 57  1  0  0  0  0
 32 33  2  0  0  0  0
 32 58  1  0  0  0  0
 34 35  1  0  0  0  0
 34 59  1  0  0  0  0
 34 60  1  0  0  0  0
 35 36  1  0  0  0  0
 35 40  1  0  0  0  0
 36 37  1  0  0  0  0
 36 61  1  0  0  0  0
 36 62  1  0  0  0  0
 37 38  1  0  0  0  0
 37 63  1  0  0  0  0
 37 64  1  0  0  0  0
 38 39  1  0  0  0  0
 39 40  1  0  0  0  0
 39 65  1  0  0  0  0
 39 66  1  0  0  0  0
 40 67  1  0  0  0  0
 40 68  1  0  0  0  0
M  END
$$$$
